21
Coordinates from ORCA-job Keton-CLi
  C   -2.69922352099174      1.43868194812120     -0.00476005994551
  C   -2.92538989114377      0.05940610750948     -0.02083870932458
  C   -1.81744002171621     -0.79864782770726     -0.00521426999708
  C   -0.51885615780343     -0.30570232883710      0.02090358436957
  C   -0.28625514895928      1.08495127956061      0.03143955806915
  C   -1.39129220722896      1.93964821560908      0.02482655913019
  H   -1.23791663180124      3.01365319270435      0.03790504686323
  H   -3.92878851614810     -0.35020856969760     -0.03871420533872
  H   -1.98492322010044     -1.87278396039022     -0.00752260181595
  H   0.31403860272549     -1.00009281790575      0.04964152678840
  O   -3.69633599632440      2.38434204547688     -0.01453346650310
  C   -5.04974743253038      1.90502353040020     -0.05285552882167
  H   -5.22776566971995      1.31313150270585     -0.95825803836185
  H   -5.67520994838619      2.79799432710452     -0.06236638382933
  H   -5.27429659604774      1.30000103456875      0.83338287135206
  C   1.09254203110824      1.68264329656627      0.05476852594799
  C   2.19278756141991      0.91302150446395     -0.17877767706498
  H   3.18297811367786      1.35932093684127     -0.16228136929522
  Li  1.14117877155500      4.61395365194360      0.55785890307062
  H   2.11858256779180     -0.14473608231497     -0.40058532720378
  O   1.15424105412414      2.97664791087616      0.29598122461050
