38

C        -3.33194377753461    0.36261607685447   -0.06638433753725
C        -2.63770674659604   -0.79063048508560    0.30020558870920
C        -1.26153690988322   -0.72512612936840    0.51324170734289
C        -0.59797148007851    0.47425420321784    0.35745967037716
C        -1.29304065072129    1.63536792507405    0.01504055081676
C        -2.66756686853916    1.56242561615206   -0.20658995526411
H        -3.20956956513482    2.44999169601162   -0.49431464133051
H        -0.72264196179288   -1.61698695010619    0.79030865433185
H         0.46782349912763    0.52388643973304    0.52283642725570
C        -0.55378149717395    2.88495674188219   -0.16754176584650
H         0.28118839569508    2.81636219827588   -0.85578315257670
C        -0.79736991851233    4.06261730674274    0.42057291312230
H        -4.39610099806310    0.29421232830115   -0.23482678392579
C        -3.38924030768199   -2.05507121054582    0.44309669765135
O        -2.61446609145047   -3.08341079485230    0.80829881292163
C        -3.25571280586798   -4.34680237776749    0.96337370836359
H        -2.45858606260827   -5.06439896801061    1.13785353260507
H        -3.81752074943684   -4.59752100399519    0.06136210828512
H        -3.94349517765349   -4.31788426826475    1.81100398540055
O        -4.58183185495114   -2.17031002331911    0.24806437619192
C        -1.82094987051844    4.30449083313377    1.45030212671749
H        -0.19838943908596    4.91741193115361    0.14565013480797
C        -2.05068810548931    5.73282615808446    1.80333448501833
O        -2.45621591319682    3.41527669402483    1.99537338818821
C        -1.01030441554725    6.65453062301067    1.92854792390583
C        -1.29572008579021    7.95687104592321    2.28901573070985
C        -2.60018257897186    8.37169956403539    2.50852810213751
C        -3.64435810107720    7.45871764770722    2.38941389169286
C        -3.35516275980890    6.13715705897922    2.05129688174487
H        -4.16401041511882    5.42706969128063    1.97374196322995
H        -2.78767740334369    9.39895796967160    2.77642606428649
H         0.01462848896654    6.35026418365145    1.78816849605414
H        -0.49237666355743    8.66948730507583    2.40052873975218
O        -4.95905587700351    7.74614499351635    2.58277905596296
C        -5.32259332864083    9.06555654833478    2.93779634716306
H        -4.87830266408921    9.35670623848867    3.89419438397735
H        -6.40686732352518    9.05060921847524    3.03107801870873
H        -5.03302079114410    9.78039480382322    2.16191461975029
