41

C       -2.6569057929      2.2685248845      0.0411479250                 
C       -2.8799296730      0.8985910133      0.1781288200                 
C       -1.7997161593      0.0172379223      0.2613644828                 
C       -0.4905274937      0.4986727966      0.2046313397                 
C       -0.2542992023      1.8710918715      0.0655829054                 
C       -1.3444237625      2.7486427963     -0.0086197292                 
O       -3.6226728590      3.2319513638     -0.0537329306                 
C       -4.9737340912      2.7894536211     -0.0959783454                 
H       -5.1498246297      2.1384428431     -0.9589158232                 
H       -5.6114674796      3.6713798211     -0.2089016015                 
H       -5.2546211952      2.2923832008      0.8383059652                 
C        1.1275625732      2.4359168040     -0.0283744649                 
H       -1.1785659274      3.8193742396     -0.1170084746                 
H       -3.8816826920      0.4837227505      0.2245624347                 
H       -1.9812113231     -1.0501237406      0.3679511754                 
H        0.3206054847     -0.2202633597      0.2694355131                 
O        1.2872567290      3.6539264272     -0.0911839641                 
C        2.2972963628      1.4731354884     -0.0869347405                 
C        3.6283553281      2.2129969981     -0.2623747622                 
O        3.6741907436      2.8188752239     -1.5529355824                 
C        4.8422424367      1.3084707674     -0.1516303658                 
H        3.7111064391      3.0098041741      0.4880782486                 
C        4.8669237459      0.0186970095     -0.7055462951                 
H        3.0409715230      3.5632560805     -1.5136572410                 
C        5.9999983798      1.7793332053      0.4882470101                 
C        5.9955036599     -0.7978938401     -0.5789701363                 
C        7.1331455963     -0.3297150121      0.0871369350                 
C        7.1340123480      0.9690354003      0.6080678257                 
H        6.0306162657      2.7895754778      0.8928377672                 
H        4.0126728226     -0.3653530936     -1.2572036369                 
H        5.9737643926     -1.7929383325     -1.0163013010                 
H        8.0185454247      1.3584787069      1.1089372246                 
C        8.3539155939     -1.1628868041      0.2586559859                 
O        8.1166053038     -2.4400806352     -0.1344597991                 
C        9.2299916898     -3.3177315162      0.0365016831                 
H        9.5460666340     -3.3424719677      1.0842437574                 
H       10.0569187666     -3.0138708209     -0.6124609068                 
H        8.9139994273     -4.3243430127     -0.2513177378                 
O        9.4028827295     -0.7408594165      0.7193415235                 
H        2.1217884731      0.8092662384     -0.9411733716                 
H        2.3170590975      0.8937014652      0.8429726485                 

