
  xtb     02282212013D
 xtb: 6.4.1 (afa7bdf)
 41 42  0     0  0            999 V2000
   -2.5695    2.3085    0.0965 C   0  0  0  0  0  0  0  0  0  0  0  0
   -2.7543    1.0280    0.6122 C   0  0  0  0  0  0  0  0  0  0  0  0
   -1.6717    0.1683    0.7245 C   0  0  0  0  0  0  0  0  0  0  0  0
   -0.4037    0.5555    0.3398 C   0  0  0  0  0  0  0  0  0  0  0  0
   -0.2045    1.8387   -0.1774 C   0  0  0  0  0  0  0  0  0  0  0  0
   -1.2910    2.7000   -0.2954 C   0  0  0  0  0  0  0  0  0  0  0  0
   -3.5485    3.2353   -0.0647 O   0  0  0  0  0  0  0  0  0  0  0  0
   -4.8695    2.9078    0.3207 C   0  0  0  0  0  0  0  0  0  0  0  0
   -5.2498    2.0541   -0.2471 H   0  0  0  0  0  0  0  0  0  0  0  0
   -5.4633    3.7902    0.0902 H   0  0  0  0  0  0  0  0  0  0  0  0
   -4.9292    2.6970    1.3923 H   0  0  0  0  0  0  0  0  0  0  0  0
    1.1141    2.3395   -0.6259 C   0  0  0  0  0  0  0  0  0  0  0  0
   -1.1446    3.6912   -0.6959 H   0  0  0  0  0  0  0  0  0  0  0  0
   -3.7288    0.6903    0.9258 H   0  0  0  0  0  0  0  0  0  0  0  0
   -1.8300   -0.8228    1.1217 H   0  0  0  0  0  0  0  0  0  0  0  0
    0.4143   -0.1384    0.4347 H   0  0  0  0  0  0  0  0  0  0  0  0
    1.2312    3.4270   -1.1641 O   0  0  0  0  0  0  0  0  0  0  0  0
    2.3140    1.4450   -0.4028 C   0  0  0  0  0  0  0  0  0  0  0  0
    3.6377    2.1596   -0.7569 C   0  0  0  0  0  0  0  0  0  0  0  0
    3.7015    2.4806   -2.1256 O   0  0  0  0  0  0  0  0  0  0  0  0
    4.7944    1.2584   -0.3960 C   0  0  0  0  0  0  0  0  0  0  0  0
    3.6991    3.0805   -0.1532 H   0  0  0  0  0  0  0  0  0  0  0  0
    5.3605    0.4242   -1.3528 C   0  0  0  0  0  0  0  0  0  0  0  0
    2.9841    3.1051   -2.3102 H   0  0  0  0  0  0  0  0  0  0  0  0
    5.2842    1.2345    0.9063 C   0  0  0  0  0  0  0  0  0  0  0  0
    6.4021   -0.4206   -1.0220 C   0  0  0  0  0  0  0  0  0  0  0  0
    6.8896   -0.4458    0.2833 C   0  0  0  0  0  0  0  0  0  0  0  0
    6.3222    0.3908    1.2449 C   0  0  0  0  0  0  0  0  0  0  0  0
    4.8550    1.8855    1.6537 H   0  0  0  0  0  0  0  0  0  0  0  0
    4.9843    0.4604   -2.3628 H   0  0  0  0  0  0  0  0  0  0  0  0
    6.8428   -1.0626   -1.7678 H   0  0  0  0  0  0  0  0  0  0  0  0
    6.7147    0.3652    2.2504 H   0  0  0  0  0  0  0  0  0  0  0  0
    8.0014   -1.3326    0.6857 C   0  0  0  0  0  0  0  0  0  0  0  0
    8.4167   -2.1310   -0.3044 O   0  0  0  0  0  0  0  0  0  0  0  0
    9.4842   -3.0261   -0.0025 C   0  0  0  0  0  0  0  0  0  0  0  0
    9.2194   -3.6542    0.8508 H   0  0  0  0  0  0  0  0  0  0  0  0
   10.3896   -2.4651    0.2388 H   0  0  0  0  0  0  0  0  0  0  0  0
    9.6278   -3.6266   -0.8968 H   0  0  0  0  0  0  0  0  0  0  0  0
    8.4944   -1.3531    1.7954 O   0  0  0  0  0  0  0  0  0  0  0  0
    2.2103    0.5645   -1.0415 H   0  0  0  0  0  0  0  0  0  0  0  0
    2.3433    1.1186    0.6366 H   0  0  0  0  0  0  0  0  0  0  0  0
  1  2  4  0  0  0  0
  2  3  4  0  0  0  0
  3  4  4  0  0  0  0
  4  5  4  0  0  0  0
  1  6  4  0  0  0  0
  5  6  4  0  0  0  0
  1  7  1  0  0  0  0
  7  8  1  0  0  0  0
  8  9  1  0  0  0  0
  8 10  1  0  0  0  0
  8 11  1  0  0  0  0
  5 12  1  0  0  0  0
  6 13  1  0  0  0  0
  2 14  1  0  0  0  0
  3 15  1  0  0  0  0
  4 16  1  0  0  0  0
 12 17  2  0  0  0  0
 12 18  1  0  0  0  0
 18 19  1  0  0  0  0
 19 20  1  0  0  0  0
 19 21  1  0  0  0  0
 19 22  1  0  0  0  0
 21 23  4  0  0  0  0
 20 24  1  0  0  0  0
 21 25  4  0  0  0  0
 23 26  4  0  0  0  0
 26 27  4  0  0  0  0
 25 28  4  0  0  0  0
 27 28  4  0  0  0  0
 25 29  1  0  0  0  0
 23 30  1  0  0  0  0
 26 31  1  0  0  0  0
 28 32  1  0  0  0  0
 27 33  1  0  0  0  0
 33 34  1  0  0  0  0
 34 35  1  0  0  0  0
 35 36  1  0  0  0  0
 35 37  1  0  0  0  0
 35 38  1  0  0  0  0
 33 39  2  0  0  0  0
 18 40  1  0  0  0  0
 18 41  1  0  0  0  0
M  END
