22

N       -3.7267468251     -2.5971794383     -0.6607646420                 
C       -2.2611051452     -2.7154823279     -0.6524061322                 
C       -4.3076490977     -1.8389876819      0.4586288710                 
H       -4.1331831262     -3.5324036790     -0.6466427781                 
C       -1.6018920421     -1.5832355756     -1.4429057306                 
C       -1.8830574029     -4.0498979742     -1.3118737906                 
H       -1.8729225848     -2.7339037653      0.3728840503                 
C       -3.9782548742     -0.3478583257      0.4294294797                 
H       -3.9659437032     -2.2628742792      1.4110143791                 
C       -5.8295351984     -2.0188860186      0.3948033666                 
H       -2.0639051975     -1.4628089380     -2.4292979596                 
H       -0.5366159752     -1.7869848875     -1.5987921011                 
H       -1.6649989198     -0.6245448003     -0.9245151869                 
H       -2.2491838328     -4.1052036837     -2.3438326876                 
H       -2.3001528071     -4.8979397483     -0.7576221107                 
H       -0.7949229998     -4.1765589527     -1.3362742588                 
H       -2.9455385174     -0.1661749763      0.7405004506                 
H       -4.6177972725      0.2104636500      1.1219818411                 
H       -4.1246549003      0.0768407889     -0.5700363349                 
H       -6.2367379268     -1.6554895630     -0.5558245746                 
H       -6.3221336206     -1.4675707227      1.2034080383                 
H       -6.1069486613     -3.0735549165      0.5020400930                 
