39

C       -3.7870105274      1.3419221813     -0.0566815451                 
C       -3.9933240575     -0.0390369744     -0.0192586835                 
C       -2.8837546749     -0.8890214646      0.0338128782                 
C       -1.5836804107     -0.3647383203      0.0577209469                 
C       -1.3565537705      1.0205891837      0.0160490572                 
C       -2.4846215036      1.8591439639     -0.0399844106                 
H       -2.3602212830      2.9413087999     -0.0617063343                 
H       -4.6238912337      2.0349949835     -0.0912871618                 
H       -3.0238627841     -1.9682458660      0.0697951187                 
H       -0.7623059697     -1.0714311109      0.1302716369                 
C        0.0044236243      1.6181440178      0.0796613019                 
C        1.1377695055      0.9352680798     -0.1743708380                 
O        0.0113870782      2.9586410632      0.4331223126                 
C        2.4751382569      1.5777811462     -0.0383842287                 
C        3.7123185374      0.7410894255     -0.0366305968                 
H        1.1080000970     -0.0960850721     -0.4890020812                 
H        0.9388277914      3.2826030793      0.3825674767                 
O        2.5578951041      2.8002329297      0.0835228821                 
C        3.7020109601     -0.6559689539      0.0636395847                 
C        4.9463754095      1.4155111509     -0.0970444887                 
C        6.1490903547      0.7078911798     -0.0668035580                 
C        6.1190942002     -0.6847449344      0.0119115619                 
H        4.9425717415      2.4999115765     -0.1633397927                 
C        4.9045297783     -1.3656807559      0.0794680368                 
H        7.0530257796     -1.2423793108      0.0327039506                 
H        4.8987892557     -2.4506096299      0.1554530171                 
H        2.7830611021     -1.2252992460      0.1501531806                 
C       -5.3503746029     -0.6503770632     -0.0214344948                 
O       -5.5446561111     -1.8554822674     -0.0115641645                 
O       -6.3099588282      0.3084660196     -0.0282313409                 
C       -7.6426135559     -0.2051511717     -0.0168193180                 
H       -7.8284106336     -0.8096167229     -0.9101517331                 
H       -8.3326780080      0.6431122895     -0.0231307308                 
H       -7.8207131119     -0.7894556655      0.8914829106                 
O        7.4034495941      1.2507105064     -0.1076655918                 
C        7.4931261553      2.6701514984     -0.0630743486                 
H        8.5540976386      2.9372659524     -0.0420573668                 
H        7.0319031550      3.0685819698      0.8469089330                 
H        7.0537802491      3.1192756934     -0.9596220311
