
  xtb     04052210263D
 xtb: 6.4.1 (afa7bdf)
 39 40  0     0  0            999 V2000
   -3.7324    1.3617   -0.0785 C   0  0  0  0  0  0  0  0  0  0  0  0
   -3.9258   -0.0180   -0.0391 C   0  0  0  0  0  0  0  0  0  0  0  0
   -2.8197   -0.8654    0.0251 C   0  0  0  0  0  0  0  0  0  0  0  0
   -1.5421   -0.3481    0.0600 C   0  0  0  0  0  0  0  0  0  0  0  0
   -1.3395    1.0338    0.0259 C   0  0  0  0  0  0  0  0  0  0  0  0
   -2.4530    1.8765   -0.0487 C   0  0  0  0  0  0  0  0  0  0  0  0
   -2.2960    2.9432   -0.0774 H   0  0  0  0  0  0  0  0  0  0  0  0
   -4.5854    2.0190   -0.1301 H   0  0  0  0  0  0  0  0  0  0  0  0
   -2.9881   -1.9311    0.0569 H   0  0  0  0  0  0  0  0  0  0  0  0
   -0.7072   -1.0243    0.1369 H   0  0  0  0  0  0  0  0  0  0  0  0
   -0.0010    1.6416    0.1034 C   0  0  0  0  0  0  0  0  0  0  0  0
    1.1586    0.9295   -0.0486 C   0  0  0  0  0  0  0  0  0  0  0  0
    0.0013    2.9434    0.3501 O   0  0  0  0  0  0  0  0  0  0  0  0
    2.4465    1.5508    0.1077 C   0  0  0  0  0  0  0  0  0  0  0  0
    3.6710    0.7147    0.0427 C   0  0  0  0  0  0  0  0  0  0  0  0
    1.1126   -0.1126   -0.2943 H   0  0  0  0  0  0  0  0  0  0  0  0
    0.9556    3.2451    0.3891 H   0  0  0  0  0  0  0  0  0  0  0  0
    2.5551    2.7757    0.3098 O   0  0  0  0  0  0  0  0  0  0  0  0
    3.6643   -0.6767    0.0927 C   0  0  0  0  0  0  0  0  0  0  0  0
    4.8903    1.3930   -0.0338 C   0  0  0  0  0  0  0  0  0  0  0  0
    6.0891    0.6971   -0.0643 C   0  0  0  0  0  0  0  0  0  0  0  0
    6.0660   -0.7000   -0.0229 C   0  0  0  0  0  0  0  0  0  0  0  0
    4.8595    2.4710   -0.0628 H   0  0  0  0  0  0  0  0  0  0  0  0
    4.8629   -1.3706    0.0584 C   0  0  0  0  0  0  0  0  0  0  0  0
    7.0047   -1.2303   -0.0480 H   0  0  0  0  0  0  0  0  0  0  0  0
    4.8574   -2.4490    0.0993 H   0  0  0  0  0  0  0  0  0  0  0  0
    2.7440   -1.2287    0.1819 H   0  0  0  0  0  0  0  0  0  0  0  0
   -5.2779   -0.6230   -0.0432 C   0  0  0  0  0  0  0  0  0  0  0  0
   -5.4882   -1.8177   -0.0226 O   0  0  0  0  0  0  0  0  0  0  0  0
   -6.2554    0.2864   -0.0643 O   0  0  0  0  0  0  0  0  0  0  0  0
   -7.5921   -0.2096   -0.0524 C   0  0  0  0  0  0  0  0  0  0  0  0
   -7.7682   -0.8388   -0.9268 H   0  0  0  0  0  0  0  0  0  0  0  0
   -8.2339    0.6669   -0.0697 H   0  0  0  0  0  0  0  0  0  0  0  0
   -7.7655   -0.8011    0.8486 H   0  0  0  0  0  0  0  0  0  0  0  0
    7.3210    1.2694   -0.1320 O   0  0  0  0  0  0  0  0  0  0  0  0
    7.4153    2.6797   -0.1527 C   0  0  0  0  0  0  0  0  0  0  0  0
    8.4810    2.8972   -0.1912 H   0  0  0  0  0  0  0  0  0  0  0  0
    6.9833    3.1202    0.7506 H   0  0  0  0  0  0  0  0  0  0  0  0
    6.9237    3.0982   -1.0357 H   0  0  0  0  0  0  0  0  0  0  0  0
  1  2  4  0  0  0  0
  2  3  4  0  0  0  0
  3  4  4  0  0  0  0
  4  5  4  0  0  0  0
  1  6  4  0  0  0  0
  5  6  4  0  0  0  0
  6  7  1  0  0  0  0
  1  8  1  0  0  0  0
  3  9  1  0  0  0  0
  4 10  1  0  0  0  0
  5 11  1  0  0  0  0
 11 12  2  0  0  0  0
 11 13  4  0  0  0  0
 12 14  1  0  0  0  0
 14 15  1  0  0  0  0
 12 16  1  0  0  0  0
 13 17  1  0  0  0  0
 14 18  2  0  0  0  0
 15 19  4  0  0  0  0
 15 20  4  0  0  0  0
 20 21  4  0  0  0  0
 21 22  4  0  0  0  0
 20 23  1  0  0  0  0
 19 24  4  0  0  0  0
 22 24  4  0  0  0  0
 22 25  1  0  0  0  0
 24 26  1  0  0  0  0
 19 27  1  0  0  0  0
  2 28  1  0  0  0  0
 28 29  2  0  0  0  0
 28 30  1  0  0  0  0
 30 31  1  0  0  0  0
 31 32  1  0  0  0  0
 31 33  1  0  0  0  0
 31 34  1  0  0  0  0
 21 35  1  0  0  0  0
 35 36  1  0  0  0  0
 36 37  1  0  0  0  0
 36 38  1  0  0  0  0
 36 39  1  0  0  0  0
M  END
