58

C       -0.4822042539      0.6726100248      0.1839685335                 
C       -0.5725289957     -0.6596742977     -0.2218094354                 
C        0.5769245404     -1.4503769324     -0.2990113474                 
C        1.8246272455     -0.9122603980      0.0194944800                 
C        1.9236630223      0.4229662964      0.4227212595                 
C        0.7672872308      1.2068161204      0.5119841763                 
O       -1.5261631031      1.5488220158      0.2937971942                 
C       -2.8290035598      1.0355840512      0.0452677005                 
H       -2.9275716406      0.6910588737     -0.9895033511                 
H       -3.5437294641      1.8507321801      0.1933291640                 
H       -3.0800989516      0.2385803264      0.7530572339                 
H       -1.5229602350     -1.1153500213     -0.4804864754                 
H        0.8363025196      2.2435177290      0.8373170276                 
H        0.4956642690     -2.4921642424     -0.6014071569                 
H        2.6928886242     -1.5614854943     -0.0266741247                 
C        3.2300185428      1.0430914429      0.7830389807                 
C        4.4527059738      0.6416154683     -0.0325879009                 
O        3.2588980720      1.8763481965      1.6825265289                 
C        5.7983509016      1.2449759697      0.4547415271                 
H        4.2746942805      0.8866666083     -1.0863240835                 
H        4.5233592022     -0.4474692528      0.0544206923                 
C        6.9410241247      0.3406225619     -0.1021146073                 
C        6.0410806713      2.7265535228      0.1149691231                 
H        5.7896788500      1.1889452699      1.5514869168                 
C        5.0559159184      3.5648799332     -0.4301157242                 
C        7.2817567514      3.3172339735      0.4226052959                 
C        7.5408686184      4.6700371273      0.1737058321                 
C        5.3039389853      4.9256263699     -0.6678507884                 
H        4.0578117884      3.2006033324     -0.6543474007                 
C        6.5487501083      5.4861950319     -0.3694589868                 
H        4.5066671477      5.5490582297     -1.0691726131                 
H        8.0741440776      2.7421331046      0.8936813529                 
H        8.5184302791      5.0693047505      0.4320564150                 
C        6.7615573328      6.9371019617     -0.6253030361                 
O        5.9292122511      7.6632718223     -1.1451532778                 
O        7.9927256655      7.3197055654     -0.2002008196                 
C        8.2733557681      8.7068439317     -0.3887798193                 
H        9.2616303241      8.9116488079      0.0326922648                 
H        7.5393258262      9.3252677534      0.1372089132                 
H        8.2942884798      8.9494816114     -1.4555746142                 
C        8.0739966596      0.0958035429      0.8853183689                 
H        7.3606264069      0.7665475547     -1.0218624744                 
H        6.5471071604     -0.6504403559     -0.3531797989                 
C        9.2159635150     -0.7182747488      0.4172859606                 
O        8.1107456898      0.5423527719      2.0265176409                 
C        9.0194594709     -2.0103426203     -0.0726666485                 
C       10.5040309417     -0.1862523168      0.5203519253                 
C       11.6083982860     -0.9399918352      0.1185876975                 
C       11.4129548698     -2.2320997904     -0.3748294539                 
C       10.1228555062     -2.7664979267     -0.4659673332                 
H       10.6513330406      0.8146441026      0.9204186728                 
H        8.0273303665     -2.4492239138     -0.1211150349                 
H        9.9835210265     -3.7802689450     -0.8345790863                 
H       12.2447349952     -2.8526943295     -0.6927461061                 
O       12.8117060832     -0.3045331986      0.2506986800                 
C       13.9791669565     -1.0775849316      0.0021798758                 
H       14.0361735358     -1.9344173998      0.6817596276                 
H       14.8484350082     -0.4411146013      0.1935923422                 
H       14.0259399819     -1.3980172186     -1.0437070536                 
