21

C       -2.9237093437     -0.0470125608      0.2230836657                 
C       -2.8854714133     -1.4411770109      0.2206109757                 
C       -1.6582254386     -2.1095282623      0.2181977187                 
C       -0.4617289551     -1.3895187838      0.2184055416                 
C       -0.4886531640      0.0089751078      0.2214512853                 
C       -1.7241902184      0.6709040872      0.2235796768                 
H       -1.7594932038      1.7593571344      0.2256157595                 
H       -3.7918771026     -2.0378626646      0.2204094696                 
H       -1.6365572158     -3.1971142284      0.2160669976                 
H        0.4723061923     -1.9431841186      0.2159715279                 
C        0.7593297970      0.8293380649      0.2222456428                 
C        2.0927939861      0.1282359676      0.2253187766                 
H        2.1945020778     -0.4904194373      1.1206728933                 
H        2.8918349557      0.8762286225      0.2393337364                 
H        2.2069260636     -0.4723274101     -0.6807852983                 
O        0.6900558142      2.0566494098      0.2193146618                 
O       -4.0520061771      0.7253976517      0.2252399841                 
C       -5.3011239714      0.0462222589      0.2230731416                 
H       -6.0926534405      0.8017943309      0.2238646264                 
H       -5.4207829179     -0.5625219196      1.1253703692                 
H       -5.4195734155     -0.5592862079     -0.6815666539                 
