38

C       -3.3497390347      0.0236715255      0.4990003362                 
C       -2.5892759664     -1.1444104418      0.3965195071                 
C       -1.1992721964     -1.0359613670      0.3101861574                 
C       -0.5886312779      0.2273934604      0.3605778534                 
C       -1.3433175344      1.4100723002      0.4883986997                 
C       -2.7327431330      1.2827009747      0.5184367430                 
H       -3.3804079545      2.1517193553      0.5506772899                 
H       -0.5751021708     -1.9198327082      0.2044271647                 
H        0.4973015792      0.2714734386      0.2924465046                 
C       -0.6171801994      2.6979812770      0.4770085577                 
H        0.3803045867      2.5850689971      0.0450770626                 
C       -0.8982209290      3.9556274133      0.8707491768                 
H       -4.4354391582     -0.0311194223      0.5600848704                 
C       -3.3066975671     -2.4483608837      0.3792804975                 
O       -2.4378784113     -3.4850944161      0.2711826956                 
C       -3.0725075110     -4.7660215570      0.2829635468                 
H       -2.3103223224     -5.5270824238      0.0948129531                 
H       -3.8297438669     -4.8359038974     -0.5050131254                 
H       -3.5183183251     -4.9562592805      1.2645164003                 
O       -4.5228224744     -2.5477491428      0.4604431960                 
C       -2.1050157582      4.5273190108      1.5441118222                 
H       -0.1084460691      4.6715168764      0.6743633777                 
C       -2.2138418130      6.0111464130      1.7342053784                 
O       -3.0125002845      3.8218727877      1.9684273875                 
C       -1.1254012563      6.8910988948      1.7131316462                 
C       -1.3170562025      8.2547379150      1.9644347782                 
C       -2.5909953585      8.7544441127      2.2459652120                 
C       -3.6853801907      7.8936418892      2.2687310341                 
C       -3.4906275063      6.5328191434      2.0070995627                 
H       -4.3539545290      5.8687340773      2.0333925546                 
H       -2.6934678826      9.8158685627      2.4478193468                 
H       -0.1101022090      6.5541104508      1.5371728842                 
H       -0.4652110189      8.9318133137      1.9566480774                 
O       -4.9800861926      8.2459909144      2.5319786276                 
C       -5.2204739866      9.5910670855      2.9261870833                 
H       -4.6727181421      9.8404636869      3.8411719294                 
H       -6.2890608491      9.6901649434      3.1412601007                 
H       -4.9779656598     10.2879975501      2.1174915603                 
