
  xtb     03022210213D
 xtb: 6.4.1 (afa7bdf)
 59 61  0     0  0            999 V2000
   -3.0167    2.7509   -0.3064 C   0  0  0  0  0  0  0  0  0  0  0  0
   -3.2014    1.5939    0.4455 C   0  0  0  0  0  0  0  0  0  0  0  0
   -2.1093    0.8030    0.7698 C   0  0  0  0  0  0  0  0  0  0  0  0
   -0.8326    1.1464    0.3724 C   0  0  0  0  0  0  0  0  0  0  0  0
   -0.6343    2.3063   -0.3804 C   0  0  0  0  0  0  0  0  0  0  0  0
   -1.7296    3.0921   -0.7185 C   0  0  0  0  0  0  0  0  0  0  0  0
   -1.5828    3.9871   -1.3031 H   0  0  0  0  0  0  0  0  0  0  0  0
   -4.1829    1.2986    0.7793 H   0  0  0  0  0  0  0  0  0  0  0  0
   -2.2669   -0.0964    1.3457 H   0  0  0  0  0  0  0  0  0  0  0  0
   -0.0047    0.5070    0.6296 H   0  0  0  0  0  0  0  0  0  0  0  0
    0.7035    2.7452   -0.8545 C   0  0  0  0  0  0  0  0  0  0  0  0
    1.9017    2.1494   -0.1530 C   0  0  0  0  0  0  0  0  0  0  0  0
    0.8188    3.5437   -1.7650 O   0  0  0  0  0  0  0  0  0  0  0  0
    3.1929    2.9106   -0.4689 C   0  0  0  0  0  0  0  0  0  0  0  0
    2.0164    1.1216   -0.5070 H   0  0  0  0  0  0  0  0  0  0  0  0
    1.7239    2.1082    0.9212 H   0  0  0  0  0  0  0  0  0  0  0  0
    4.3749    2.2740    0.2147 C   0  0  0  0  0  0  0  0  0  0  0  0
    3.1593    4.3633   -0.0712 C   0  0  0  0  0  0  0  0  0  0  0  0
    3.3669    2.8609   -1.5521 H   0  0  0  0  0  0  0  0  0  0  0  0
    2.4303    4.8391    1.0160 C   0  0  0  0  0  0  0  0  0  0  0  0
    2.4823    6.1714    1.3725 C   0  0  0  0  0  0  0  0  0  0  0  0
   -4.0074    3.6001   -0.6879 O   0  0  0  0  0  0  0  0  0  0  0  0
   -5.3378    3.3096   -0.3072 C   0  0  0  0  0  0  0  0  0  0  0  0
   -5.6710    2.3548   -0.7242 H   0  0  0  0  0  0  0  0  0  0  0  0
   -5.9390    4.1165   -0.7219 H   0  0  0  0  0  0  0  0  0  0  0  0
   -5.4463    3.2963    0.7813 H   0  0  0  0  0  0  0  0  0  0  0  0
    3.2741    7.0671    0.6555 C   0  0  0  0  0  0  0  0  0  0  0  0
    4.0154    6.5975   -0.4300 C   0  0  0  0  0  0  0  0  0  0  0  0
    3.9504    5.2664   -0.7802 C   0  0  0  0  0  0  0  0  0  0  0  0
    4.5277    4.8989   -1.6212 H   0  0  0  0  0  0  0  0  0  0  0  0
    4.6301    7.2845   -0.9895 H   0  0  0  0  0  0  0  0  0  0  0  0
    1.8076    4.1740    1.5930 H   0  0  0  0  0  0  0  0  0  0  0  0
    1.9124    6.5428    2.2114 H   0  0  0  0  0  0  0  0  0  0  0  0
    3.3047    8.4802    1.0700 C   0  0  0  0  0  0  0  0  0  0  0  0
    4.1038    9.2355    0.3026 O   0  0  0  0  0  0  0  0  0  0  0  0
    2.6820    8.9386    2.0076 O   0  0  0  0  0  0  0  0  0  0  0  0
    4.1942   10.6165    0.6402 C   0  0  0  0  0  0  0  0  0  0  0  0
    3.2145   11.0906    0.5534 H   0  0  0  0  0  0  0  0  0  0  0  0
    4.8975   11.0482   -0.0665 H   0  0  0  0  0  0  0  0  0  0  0  0
    4.5517   10.7315    1.6655 H   0  0  0  0  0  0  0  0  0  0  0  0
    5.5281    1.9823   -0.4161 C   0  0  0  0  0  0  0  0  0  0  0  0
    6.6476    1.3543    0.3309 C   0  0  0  0  0  0  0  0  0  0  0  0
    5.7424    2.2336   -1.6974 O   0  0  0  0  0  0  0  0  0  0  0  0
    4.2826    2.1038    1.2745 H   0  0  0  0  0  0  0  0  0  0  0  0
    6.4267    0.4343    1.3564 C   0  0  0  0  0  0  0  0  0  0  0  0
    7.9542    1.6729   -0.0079 C   0  0  0  0  0  0  0  0  0  0  0  0
    9.0355    1.1075    0.6635 C   0  0  0  0  0  0  0  0  0  0  0  0
    8.1464    2.3826   -0.8004 H   0  0  0  0  0  0  0  0  0  0  0  0
    7.4966   -0.1291    2.0211 C   0  0  0  0  0  0  0  0  0  0  0  0
    8.8029    0.1991    1.6892 C   0  0  0  0  0  0  0  0  0  0  0  0
    9.6167   -0.2587    2.2284 H   0  0  0  0  0  0  0  0  0  0  0  0
    5.4192    0.1523    1.6173 H   0  0  0  0  0  0  0  0  0  0  0  0
    7.3216   -0.8436    2.8123 H   0  0  0  0  0  0  0  0  0  0  0  0
   10.2718    1.5099    0.2394 O   0  0  0  0  0  0  0  0  0  0  0  0
   11.4119    0.9900    0.8910 C   0  0  0  0  0  0  0  0  0  0  0  0
   11.4206    1.2565    1.9523 H   0  0  0  0  0  0  0  0  0  0  0  0
   12.2645    1.4499    0.3942 H   0  0  0  0  0  0  0  0  0  0  0  0
   11.4712   -0.0975    0.7851 H   0  0  0  0  0  0  0  0  0  0  0  0
    5.8563    2.6417   -3.2260 Li  0  0  0  0  0  0  0  0  0  0  0  0
  1  2  4  0  0  0  0
  2  3  4  0  0  0  0
  3  4  4  0  0  0  0
  4  5  4  0  0  0  0
  1  6  4  0  0  0  0
  5  6  4  0  0  0  0
  6  7  1  0  0  0  0
  2  8  1  0  0  0  0
  3  9  1  0  0  0  0
  4 10  1  0  0  0  0
  5 11  1  0  0  0  0
 11 12  1  0  0  0  0
 11 13  2  0  0  0  0
 12 14  1  0  0  0  0
 12 15  1  0  0  0  0
 12 16  1  0  0  0  0
 14 17  1  0  0  0  0
 14 18  1  0  0  0  0
 14 19  1  0  0  0  0
 18 20  4  0  0  0  0
 20 21  4  0  0  0  0
  1 22  1  0  0  0  0
 22 23  1  0  0  0  0
 23 24  1  0  0  0  0
 23 25  1  0  0  0  0
 23 26  1  0  0  0  0
 21 27  4  0  0  0  0
 27 28  4  0  0  0  0
 18 29  4  0  0  0  0
 28 29  4  0  0  0  0
 29 30  1  0  0  0  0
 28 31  1  0  0  0  0
 20 32  1  0  0  0  0
 21 33  1  0  0  0  0
 27 34  1  0  0  0  0
 34 35  1  0  0  0  0
 34 36  2  0  0  0  0
 35 37  1  0  0  0  0
 37 38  1  0  0  0  0
 37 39  1  0  0  0  0
 37 40  1  0  0  0  0
 17 41  2  0  0  0  0
 41 42  1  0  0  0  0
 41 43  1  0  0  0  0
 17 44  1  0  0  0  0
 42 45  4  0  0  0  0
 42 46  4  0  0  0  0
 46 47  4  0  0  0  0
 46 48  1  0  0  0  0
 45 49  4  0  0  0  0
 47 50  4  0  0  0  0
 49 50  4  0  0  0  0
 50 51  1  0  0  0  0
 45 52  1  0  0  0  0
 49 53  1  0  0  0  0
 47 54  1  0  0  0  0
 54 55  1  0  0  0  0
 55 56  1  0  0  0  0
 55 57  1  0  0  0  0
 55 58  1  0  0  0  0
 43 59  1  0  0  0  0
M  END
