
  xtb     02242214213D
 xtb: 6.4.1 (afa7bdf)
 22 21  0     0  0            999 V2000
   -3.6999   -2.4470   -0.7652 N   0  0  0  0  0  0  0  0  0  0  0  0
   -2.2780   -2.6506   -0.7022 C   0  0  0  0  0  0  0  0  0  0  0  0
   -4.2827   -1.8485    0.4012 C   0  0  0  0  0  0  0  0  0  0  0  0
   -1.4821   -1.6410   -1.5529 C   0  0  0  0  0  0  0  0  0  0  0  0
   -1.9209   -4.0661   -1.1773 C   0  0  0  0  0  0  0  0  0  0  0  0
   -1.9293   -2.5520    0.3439 H   0  0  0  0  0  0  0  0  0  0  0  0
   -4.0466   -0.3257    0.5112 C   0  0  0  0  0  0  0  0  0  0  0  0
   -3.8536   -2.3060    1.3201 H   0  0  0  0  0  0  0  0  0  0  0  0
   -5.7886   -2.1112    0.4146 C   0  0  0  0  0  0  0  0  0  0  0  0
   -1.7584   -1.7604   -2.6013 H   0  0  0  0  0  0  0  0  0  0  0  0
   -0.4114   -1.8037   -1.4455 H   0  0  0  0  0  0  0  0  0  0  0  0
   -1.7141   -0.6246   -1.2489 H   0  0  0  0  0  0  0  0  0  0  0  0
   -2.2482   -4.1875   -2.2116 H   0  0  0  0  0  0  0  0  0  0  0  0
   -2.4314   -4.8003   -0.5597 H   0  0  0  0  0  0  0  0  0  0  0  0
   -0.8484   -4.2374   -1.1200 H   0  0  0  0  0  0  0  0  0  0  0  0
   -2.9854   -0.1169    0.6178 H   0  0  0  0  0  0  0  0  0  0  0  0
   -4.5651    0.0827    1.3767 H   0  0  0  0  0  0  0  0  0  0  0  0
   -4.4100    0.1637   -0.3921 H   0  0  0  0  0  0  0  0  0  0  0  0
   -6.2383   -1.6461   -0.4661 H   0  0  0  0  0  0  0  0  0  0  0  0
   -6.2453   -1.6926    1.3077 H   0  0  0  0  0  0  0  0  0  0  0  0
   -5.9731   -3.1830    0.3897 H   0  0  0  0  0  0  0  0  0  0  0  0
   -4.6322   -2.6745   -2.2173 Li  0  0  0  0  0  0  0  0  0  0  0  0
  1  2  1  0  0  0  0
  1  3  1  0  0  0  0
  2  4  1  0  0  0  0
  2  5  1  0  0  0  0
  2  6  1  0  0  0  0
  3  7  1  0  0  0  0
  3  8  1  0  0  0  0
  3  9  1  0  0  0  0
  4 10  1  0  0  0  0
  4 11  1  0  0  0  0
  4 12  1  0  0  0  0
  5 13  1  0  0  0  0
  5 14  1  0  0  0  0
  5 15  1  0  0  0  0
  7 16  1  0  0  0  0
  7 17  1  0  0  0  0
  7 18  1  0  0  0  0
  9 19  1  0  0  0  0
  9 20  1  0  0  0  0
  9 21  1  0  0  0  0
  1 22  1  0  0  0  0
M  END
